# generated using pymatgen
data_Si20O43
_symmetry_space_group_name_H-M   'P 1'
_cell_length_a   5.16320800
_cell_length_b   22.45918900
_cell_length_c   83.58097093
_cell_angle_alpha   128.38193076
_cell_angle_beta   90.00000000
_cell_angle_gamma   90.00000000
_symmetry_Int_Tables_number   1
_chemical_formula_structural   Si20O43
_chemical_formula_sum   'Si40 O86'
_cell_volume   7597.58983128
_cell_formula_units_Z   2
loop_
 _symmetry_equiv_pos_site_id
 _symmetry_equiv_pos_as_xyz
  1  'x, y, z'
loop_
 _atom_site_type_symbol
 _atom_site_label
 _atom_site_symmetry_multiplicity
 _atom_site_fract_x
 _atom_site_fract_y
 _atom_site_fract_z
 _atom_site_occupancy
  Si  Si0  1  0.00000300  0.96196746  0.15601884  1
  Si  Si1  1  0.00000300  0.46196746  0.15601884  1
  O  O2  1  0.00000300  0.87319835  0.14469870  1
  O  O3  1  0.00000300  0.37319835  0.14469870  1
  O  O4  1  0.00000300  0.47131702  0.13857943  1
  O  O5  1  0.00000300  -0.02868298  0.13857943  1
  Si  Si6  1  0.00000400  0.02359226  0.29839162  1
  Si  Si7  1  0.50000400  0.12836531  0.31600672  1
  Si  Si8  1  0.00000300  0.37423250  0.19070301  1
  Si  Si9  1  0.50000300  0.47900555  0.20831811  1
  Si  Si10  1  0.50000300  -0.02099445  0.20831811  1
  Si  Si11  1  0.00000300  -0.12576750  0.19070301  1
  Si  Si12  1  0.00000300  0.46135874  0.25384526  1
  Si  Si13  1  0.50000300  0.54123984  0.25286497  1
  Si  Si14  1  0.50000400  0.20141744  0.19580206  1
  Si  Si15  1  0.00000300  0.29879641  0.21168820  1
  Si  Si16  1  0.50000300  0.04063036  0.18402422  1
  Si  Si17  1  0.00000300  0.96196746  0.32268551  1
  Si  Si18  1  0.50000300  0.70380217  0.29502203  1
  Si  Si19  1  0.00000300  0.80118214  0.31090817  1
  Si  Si20  1  0.00000200  0.52359226  0.29839162  1
  Si  Si21  1  0.50000200  0.62836531  0.31600672  1
  Si  Si22  1  0.00000300  0.46196746  0.32268551  1
  Si  Si23  1  0.50000300  0.54063036  0.18402422  1
  Si  Si24  1  0.50000200  0.70141744  0.19580206  1
  Si  Si25  1  0.00000300  0.79879641  0.21168820  1
  Si  Si26  1  0.50000200  0.04123984  0.25286497  1
  Si  Si27  1  0.00000200  -0.03864126  0.25384526  1
  Si  Si28  1  0.50000300  0.20380217  0.29502203  1
  Si  Si29  1  0.00000300  0.30118214  0.31090817  1
  O  O30  1  0.75095800  0.07645692  0.30683082  1
  O  O31  1  0.24904900  0.07645692  0.30683082  1
  O  O32  1  0.25095700  0.42614166  0.19987941  1
  O  O33  1  0.74904900  0.42614089  0.19987891  1
  O  O34  1  0.25095700  -0.07385911  0.19987891  1
  O  O35  1  0.74904900  -0.07385834  0.19987941  1
  O  O36  1  0.75000400  0.50129979  0.25335512  1
  O  O37  1  0.25000400  0.50129979  0.25335512  1
  O  O38  1  0.00000500  0.37344110  0.23489949  1
  O  O39  1  0.50000300  0.62915771  0.27181024  1
  O  O40  1  0.25008700  0.25049342  0.20811547  1
  O  O41  1  0.74991900  0.25049419  0.20811596  1
  O  O42  1  0.00000100  0.31739998  0.19605562  1
  O  O43  1  0.50000300  0.12939946  0.19534437  1
  O  O44  1  0.00000300  0.87319835  0.31136537  1
  O  O45  1  0.24992000  0.75210439  0.29859427  1
  O  O46  1  0.75008700  0.75210439  0.29859427  1
  O  O47  1  0.50000300  0.68519860  0.31065461  1
  O  O48  1  0.75095700  0.57645692  0.30683082  1
  O  O49  1  0.24904800  0.57645692  0.30683082  1
  O  O50  1  0.00000300  0.37319835  0.31136537  1
  O  O51  1  0.50000300  0.62939946  0.19534437  1
  O  O52  1  0.74991900  0.75049342  0.20811547  1
  O  O53  1  0.25008700  0.75049419  0.20811596  1
  O  O54  1  0.00000500  -0.18260002  0.19605562  1
  O  O55  1  0.75000200  0.00129979  0.25335512  1
  O  O56  1  0.25000200  0.00129979  0.25335512  1
  O  O57  1  0.00000100  -0.12655890  0.23489949  1
  O  O58  1  0.50000300  0.12915771  0.27181024  1
  O  O59  1  0.24991900  0.25210439  0.29859427  1
  O  O60  1  0.75008600  0.25210439  0.29859427  1
  O  O61  1  0.50000200  0.18519860  0.31065461  1
  O  O62  1  0.50000200  0.53128256  0.20146413  1
  O  O63  1  0.50000400  0.53498251  0.23271182  1
  O  O64  1  0.00000200  0.46761607  0.27399841  1
  O  O65  1  0.00000300  0.47131702  0.30524610  1
  O  O66  1  0.50000200  0.03498251  0.23271182  1
  O  O67  1  0.00000300  -0.02868298  0.30524610  1
  O  O68  1  0.00000400  -0.03238393  0.27399841  1
  O  O69  1  0.50000400  0.03128256  0.20146413  1
  O  O70  1  0.50000800  0.17741081  0.17337640  1
  O  O71  1  0.49999800  0.67741081  0.17337640  1
  O  O72  1  0.25003900  0.50218843  0.17008517  1
  O  O73  1  0.25003900  0.00218843  0.17008517  1
  O  O74  1  0.74996700  0.50218843  0.17008517  1
  O  O75  1  0.74996700  0.00218843  0.17008517  1
  O  O76  1  0.00000600  0.32340873  0.16653989  1
  O  O77  1  0.00000000  -0.17659127  0.16653989  1
  Si  Si78  1  0.00000300  0.37423250  0.35736967  1
  Si  Si79  1  0.50000300  0.47900555  0.37498478  1
  Si  Si80  1  0.50000300  -0.02099445  0.37498478  1
  Si  Si81  1  0.00000300  -0.12576750  0.35736967  1
  Si  Si82  1  0.00000300  0.46135874  0.42051192  1
  Si  Si83  1  0.50000300  0.54123984  0.41953164  1
  Si  Si84  1  0.50000400  0.20141744  0.36246873  1
  Si  Si85  1  0.00000300  0.29879641  0.37835487  1
  Si  Si86  1  0.50000300  0.04063036  0.35069089  1
  Si  Si87  1  0.50000300  0.54063036  0.35069089  1
  Si  Si88  1  0.50000200  0.70141744  0.36246873  1
  Si  Si89  1  0.00000300  0.79879641  0.37835487  1
  Si  Si90  1  0.50000200  0.04123984  0.41953164  1
  Si  Si91  1  0.00000200  -0.03864126  0.42051192  1
  O  O92  1  0.25095700  0.42614166  0.36654608  1
  O  O93  1  0.74904900  0.42614089  0.36654558  1
  O  O94  1  0.25095700  -0.07385911  0.36654558  1
  O  O95  1  0.74904900  -0.07385834  0.36654608  1
  O  O96  1  0.75000400  0.50129979  0.42002178  1
  O  O97  1  0.25000400  0.50129979  0.42002178  1
  O  O98  1  0.00000500  0.37344110  0.40156615  1
  O  O99  1  0.50000300  0.62915771  0.43847691  1
  O  O100  1  0.25008700  0.25049342  0.37478213  1
  O  O101  1  0.74991900  0.25049419  0.37478263  1
  O  O102  1  0.00000100  0.31739998  0.36272229  1
  O  O103  1  0.50000300  0.12939946  0.36201103  1
  O  O104  1  0.50000300  0.62939946  0.36201103  1
  O  O105  1  0.74991900  0.75049342  0.37478213  1
  O  O106  1  0.25008700  0.75049419  0.37478263  1
  O  O107  1  0.00000500  -0.18260002  0.36272229  1
  O  O108  1  0.75000200  0.00129979  0.42002178  1
  O  O109  1  0.25000200  0.00129979  0.42002178  1
  O  O110  1  0.00000100  -0.12655890  0.40156615  1
  O  O111  1  0.50000300  0.12915771  0.43847691  1
  O  O112  1  0.50000200  0.53128256  0.36813080  1
  O  O113  1  0.50000400  0.53498251  0.39937849  1
  O  O114  1  0.00000200  0.46761607  0.44066507  1
  O  O115  1  0.50000200  0.03498251  0.39937849  1
  O  O116  1  0.00000400  -0.03238393  0.44066507  1
  O  O117  1  0.50000400  0.03128256  0.36813080  1
  O  O118  1  0.50000800  0.17741081  0.34004306  1
  O  O119  1  0.49999800  0.67741081  0.34004306  1
  O  O120  1  0.25003900  0.50218843  0.33675184  1
  O  O121  1  0.25003900  0.00218843  0.33675184  1
  O  O122  1  0.74996700  0.50218843  0.33675184  1
  O  O123  1  0.74996700  0.00218843  0.33675184  1
  O  O124  1  0.00000600  0.32340873  0.33320656  1
  O  O125  1  0.00000000  -0.17659127  0.33320656  1
